# Generated by REPEAT Assigner based on pymatgen
data_DB0-m1_o2_bsn
_audit_creation_date              2022-05-24
_audit_creation_method            REPEAT_Assigner
_cell_length_a                    16.805856
_cell_length_b                    24.225209
_cell_length_c                    24.189107
_cell_angle_alpha                 84.838031
_cell_angle_beta                  107.570176
_cell_angle_gamma                 107.696718
_cell_volume                      8944.274702
_symmetry_space_group_name_H-M    P1
_symmetry_Int_Tables_number       1
loop_
    _symmetry_equiv_pos_site_id
    _symmetry_equiv_pos_as_xyz
    1  x,y,z
loop_
    _atom_site_type_symbol
    _atom_site_label
    _atom_site_fract_x
    _atom_site_fract_y
    _atom_site_fract_z
    _atom_type_partial_charge
    Zn  Zn1  0.519639  0.425304  0.489544  1.401704
    Zn  Zn2  0.598347  0.557006  0.509510  1.389246
    Zn  Zn3  0.411548  0.507653  0.431456  1.399771
    Zn  Zn4  0.458896  0.488931  0.564068  1.392581
    O   O1   0.496730  0.494714  0.498215  -1.661816
    O   O2   0.632989  0.440020  0.480303  -0.687338
    O   O3   0.597543  0.603979  0.442256  -0.640904
    O   O4   0.360628  0.442385  0.380265  -0.630893
    O   O5   0.697584  0.531065  0.520976  -0.675986
    O   O6   0.434068  0.377868  0.426783  -0.678572
    O   O7   0.455383  0.572897  0.385633  -0.675506
    O   O8   0.312441  0.514326  0.450291  -0.682091
    O   O9   0.487171  0.428492  0.616258  -0.679913
    O   O10  0.337611  0.478315  0.543485  -0.672923
    O   O11  0.524915  0.378071  0.557502  -0.641746
    O   O12  0.618062  0.608962  0.571456  -0.666904
    O   O13  0.506478  0.558367  0.608402  -0.645000
    C   C1   0.286819  0.495200  0.496645  0.597753
    C   C2   0.572027  0.604429  0.607871  0.507927
    C   C3   0.512798  0.384792  0.607311  0.528570
    C   C4   0.702451  0.483771  0.501245  0.605963
    C   C5   0.372757  0.390981  0.384019  0.529678
    C   C6   0.535672  0.607411  0.394777  0.519947
    Zn  Zn5  0.794944  0.024934  0.939478  1.398872
    Zn  Zn6  0.840421  0.987884  0.068612  1.391868
    Zn  Zn7  0.733618  0.073137  0.027629  1.387810
    Zn  Zn8  0.655191  0.944806  0.989804  1.389323
    O   O14  0.756309  0.007862  0.006264  -1.655375
    O   O15  0.914542  0.028730  0.957154  -0.677367
    O   O16  0.895832  0.046305  0.126545  -0.627013
    O   O17  0.731194  0.130512  0.967984  -0.637079
    O   O18  0.935791  0.982443  0.045520  -0.673195
    O   O19  0.777958  0.095698  0.902284  -0.662601
    O   O20  0.818015  0.111839  0.096775  -0.662209
    O   O21  0.619234  0.054265  0.035839  -0.680358
    O   O22  0.634463  0.904838  0.919949  -0.663273
    O   O23  0.555833  0.968368  0.984870  -0.673932
    O   O24  0.737765  0.965581  0.881270  -0.646782
    O   O25  0.795934  0.918409  0.108184  -0.682498
    O   O26  0.655752  0.887067  0.049091  -0.642218
    C   C7   0.550253  0.012142  0.010284  0.597053
    C   C8   0.717599  0.881054  0.095535  0.512846
    C   C9   0.673230  0.917950  0.878829  0.511981
    C   C10  0.962511  0.005628  0.000671  0.586643
    C   C11  0.750196  0.135018  0.918643  0.523636
    C   C12  0.882322  0.095408  0.133427  0.499876
    C   C13  0.941179  0.518374  0.535433  -0.118843
    H   H1   0.998616  0.548728  0.562186  0.105621
    C   C14  0.860525  0.518971  0.536234  -0.179550
    H   H2   0.855864  0.549253  0.564449  0.147762
    C   C15  0.787133  0.481014  0.501538  0.114033
    C   C16  0.794047  0.442423  0.465951  -0.176056
    H   H3   0.736650  0.412871  0.438275  0.149196
    C   C17  0.875035  0.442915  0.464114  -0.128288
    H   H4   0.880881  0.413118  0.435911  0.106528
    C   C18  0.948229  0.480826  0.499013  0.088036
    C   C19  0.052834  0.487533  0.445421  -0.135329
    H   H5   0.003378  0.489459  0.405157  0.109237
    C   C20  0.136203  0.492882  0.444857  -0.169083
    H   H6   0.151019  0.497531  0.403908  0.148740
    C   C21  0.199340  0.491419  0.496433  0.106080
    C   C22  0.179619  0.484750  0.548393  -0.166881
    H   H7   0.228523  0.483619  0.589135  0.147653
    C   C23  0.097006  0.480751  0.548940  -0.130017
    H   H8   0.081867  0.475985  0.589801  0.103826
    C   C24  0.033895  0.482098  0.497551  0.095734
    C   C25  0.676317  0.742774  0.692199  -0.128764
    H   H9   0.738422  0.775950  0.702893  0.116505
    C   C26  0.664361  0.697501  0.656844  -0.213740
    H   H10  0.716289  0.696681  0.639595  0.156518
    C   C27  0.587490  0.652891  0.645234  0.209146
    C   C28  0.521854  0.654740  0.667494  -0.207841
    H   H11  0.460067  0.621227  0.657610  0.148240
    C   C29  0.532894  0.700366  0.701478  -0.117381
    H   H12  0.479073  0.701294  0.716611  0.107886
    C   C30  0.610648  0.744251  0.715025  0.074350
    C   C31  0.587634  0.777529  0.800703  -0.129059
    H   H13  0.551950  0.733758  0.808555  0.114145
    C   C32  0.600562  0.819846  0.839281  -0.195901
    H   H14  0.573778  0.807951  0.875499  0.152122
    C   C33  0.650945  0.875495  0.833375  0.187797
    C   C34  0.686281  0.888915  0.787475  -0.197635
    H   H15  0.725983  0.932305  0.782159  0.148466
    C   C35  0.672045  0.846644  0.748130  -0.134370
    H   H16  0.699309  0.858247  0.712108  0.114815
    C   C36  0.623452  0.790442  0.754932  0.083823
    C   C37  0.094295  0.162368  0.241092  -0.117611
    H   H17  0.154468  0.151410  0.260238  0.111339
    C   C38  0.024712  0.121829  0.206734  -0.202832
    H   H18  0.032886  0.080400  0.200928  0.148578
    C   C39  0.948735  0.135465  0.177495  0.181826
    C   C40  0.941390  0.189183  0.185367  -0.187170
    H   H19  0.882492  0.200682  0.162959  0.150051
    C   C41  0.010793  0.229580  0.220640  -0.134869
    H   H20  0.003436  0.271307  0.226277  0.113236
    C   C42  0.088589  0.216949  0.247505  0.077782
    C   C43  0.180796  0.318642  0.263556  -0.108501
    H   H21  0.138419  0.331496  0.224677  0.110942
    C   C44  0.250996  0.360591  0.295810  -0.200834
    H   H22  0.260213  0.405317  0.282435  0.142840
    C   C45  0.307698  0.345656  0.344997  0.160715
    C   C46  0.294745  0.288280  0.361120  -0.170773
    H   H23  0.337116  0.275906  0.400336  0.147900
    C   C47  0.223504  0.246398  0.329531  -0.140058
    H   H24  0.212326  0.202278  0.345016  0.111266
    C   C48  0.165297  0.261367  0.280907  0.074535
    C   C49  0.599276  0.333399  0.756694  -0.136343
    H   H25  0.619490  0.349795  0.800379  0.112364
    C   C50  0.560840  0.364789  0.711863  -0.185018
    H   H26  0.551995  0.404849  0.721503  0.150013
    C   C51  0.539585  0.347080  0.655260  0.180561
    C   C52  0.553626  0.296615  0.643914  -0.218168
    H   H27  0.536844  0.281820  0.599895  0.150615
    C   C53  0.590523  0.264729  0.688659  -0.102814
    H   H28  0.599264  0.224856  0.678463  0.109554
    C   C54  0.615690  0.283604  0.745301  0.073012
    C   C55  0.714691  0.222703  0.783972  -0.135133
    H   H29  0.732159  0.227733  0.743953  0.111325
    C   C56  0.748198  0.187033  0.826153  -0.176378
    H   H30  0.788983  0.163871  0.817607  0.146906
    C   C57  0.727331  0.179763  0.877770  0.149420
    C   C58  0.675627  0.210239  0.887784  -0.174110
    H   H31  0.657356  0.204702  0.927540  0.140132
    C   C59  0.641003  0.245137  0.845291  -0.132680
    H   H32  0.596255  0.265392  0.852986  0.114377
    C   C60  0.658620  0.250566  0.792533  0.083796
    C   C61  0.525245  0.698194  0.260882  -0.128691
    H   H33  0.476294  0.710918  0.226204  0.114723
    C   C62  0.499113  0.661705  0.303404  -0.206592
    H   H34  0.430560  0.645666  0.300566  0.156676
    C   C63  0.560593  0.646995  0.349674  0.189288
    C   C64  0.647818  0.667939  0.352512  -0.198003
    H   H35  0.697136  0.655845  0.387439  0.146435
    C   C65  0.673651  0.703104  0.309594  -0.120543
    H   H36  0.742097  0.716771  0.312129  0.109547
    C   C66  0.612869  0.719101  0.263715  0.077097
    C   C67  0.720146  0.802332  0.234717  -0.132123
    H   H37  0.759746  0.809101  0.279324  0.114347
    C   C68  0.747040  0.840331  0.193701  -0.193420
    H   H38  0.806850  0.875250  0.207241  0.151394
    C   C69  0.695275  0.835864  0.137016  0.199143
    C   C70  0.617824  0.791883  0.121204  -0.211599
    H   H39  0.576520  0.787616  0.076911  0.150079
    C   C71  0.591704  0.753064  0.162024  -0.120432
    H   H40  0.531553  0.718471  0.148352  0.111835
    C   C72  0.641990  0.758602  0.219324  0.077279
    C   C73  0.192667  0.006093  0.053410  -0.125956
    H   H41  0.239078  0.999718  0.093670  0.107491
    C   C74  0.109090  0.001329  0.052459  -0.183406
    H   H42  0.091570  0.992791  0.092514  0.152708
    C   C75  0.049591  0.008554  0.000937  0.123611
    C   C76  0.073092  0.020227  0.950324  -0.174811
    H   H43  0.026743  0.025931  0.909776  0.148310
    C   C77  0.156206  0.023520  0.951123  -0.131201
    H   H44  0.174727  0.032171  0.911406  0.105488
    C   C78  0.215705  0.016743  0.002714  0.094610
    C   C79  0.311516  0.983402  0.965083  -0.121412
    H   H45  0.255109  0.956480  0.934126  0.107217
    C   C80  0.392917  0.981228  0.967852  -0.180451
    H   H46  0.399416  0.953545  0.937877  0.147963
    C   C81  0.464741  0.014636  0.008097  0.117432
    C   C82  0.455604  0.050275  0.045581  -0.170120
    H   H47  0.511698  0.076489  0.077300  0.146867
    C   C83  0.373760  0.051230  0.043734  -0.131002
    H   H48  0.366092  0.078539  0.073554  0.105049
    C   C84  0.302158  0.017882  0.003385  0.088306
